tests/data/P1U/p1uhs0_1247/Master.dss
Clear

New Circuit.substation_p1uhs0_69 bus1=p1uhs0_69 pu=1.0 basekV=69.0 R1=1e-05 X1=1e-05 R0=1e-05 X0=1e-05

Redirect LineCodes.dss
Redirect p1uhs0_1247--p1udt104/LineCodes.dss
Redirect p1uhs0_1247--p1udt1469/LineCodes.dss
Redirect p1uhs0_1247--p1udt1470/LineCodes.dss
Redirect p1uhs0_1247--p1udt1472/LineCodes.dss
Redirect p1uhs0_1247--p1udt942/LineCodes.dss
Redirect Lines.dss
Redirect p1uhs0_1247--p1udt104/Lines.dss
Redirect p1uhs0_1247--p1udt1469/Lines.dss
Redirect p1uhs0_1247--p1udt1470/Lines.dss
Redirect p1uhs0_1247--p1udt1472/Lines.dss
Redirect p1uhs0_1247--p1udt942/Lines.dss
Redirect Transformers.dss
Redirect p1uhs0_1247--p1udt104/Transformers.dss
Redirect p1uhs0_1247--p1udt1469/Transformers.dss
Redirect p1uhs0_1247--p1udt1470/Transformers.dss
Redirect p1uhs0_1247--p1udt1472/Transformers.dss
Redirect p1uhs0_1247--p1udt942/Transformers.dss
Redirect Regulators.dss
Redirect p1uhs0_1247--p1udt104/Loads.dss
Redirect p1uhs0_1247--p1udt1469/Loads.dss
Redirect p1uhs0_1247--p1udt1470/Loads.dss
Redirect p1uhs0_1247--p1udt1472/Loads.dss
Redirect p1uhs0_1247--p1udt942/Loads.dss
Redirect p1uhs0_1247--p1udt1469/Capacitors.dss
Redirect p1uhs0_1247--p1udt1470/Capacitors.dss
Redirect p1uhs0_1247--p1udt1472/Capacitors.dss
new monitor.m1 element=Line.sb9_p1uhs0_1247_407 mode=0
new monitor.m2 element=Line.sb9_p1uhs0_1247_407 mode=1
new energymeter.m3 Line.sb9_p1uhs0_1247_407

Set Voltagebases=[0.12, 0.208, 0.48, 7.2, 12.47, 69.0]

Calcvoltagebases

Buscoords Buscoords.dss
set maxcontroliter=50
